LAMMPS (29 Aug 2024)
units real
atom_style full
boundary p p p
read_data mixture.data.lmp
Reading data file ...
  orthogonal box = (0.456061 1.957395 0.004344) to (49.856299 49.995656 49.23657)
  reading atoms ...
  3910 atoms
Finding 1-2 1-3 1-4 neighbors ...
     0 = max # of 1-2 neighbors
     0 = max # of 1-3 neighbors
     0 = max # of 1-4 neighbors
     1 = max # of special neighbors

pair_style reaxff NULL
pair_coeff * * chon.ff.docx C H O N
Reading potential file chon.ff.docx with DATE: 2019-11-26
fix qeq all qeq/reaxff 1 0.0 10.0 1e-6 reaxff

neighbor 2.0 bin
neigh_modify every 10 delay 0 check yes

velocity all create 300.0 12345

reset_timestep 0
fix md all npt temp 300 600 100 iso 1.0 1.0 1000

thermo 10
thermo_style custom step temp etotal pe ke press

dump traj all custom 1 dump.trial.lammpstrj id type x y z
dump_modify traj sort id

timestep 0.25
run 1000

CITE-CITE-CITE-CITE-CITE-CITE-CITE-CITE-CITE-CITE-CITE-CITE-CITE

Your simulation uses code contributions which should be cited:

- Type Label Framework: https://doi.org/10.1021/acs.jpcb.3c08419

@Article{Gissinger24,
 author = {Jacob R. Gissinger, Ilia Nikiforov, Yaser Afshar, Brendon Waters, Moon-ki Choi, Daniel S. Karls, Alexander Stukowski, Wonpil Im, Hendrik Heinz, Axel Kohlmeyer, and Ellad B. Tadmor},
 title = {Type Label Framework for Bonded Force Fields in LAMMPS},
 journal = {J. Phys. Chem. B},
 year =    2024,
 volume =  128,
 number =  13,
 pages =   {3282â€“-3297}
}

- pair reaxff command: doi:10.1016/j.parco.2011.08.005

@Article{Aktulga12,
 author = {H. M. Aktulga and J. C. Fogarty and S. A. Pandit and A. Y. Grama},
 title = {Parallel Reactive Molecular Dynamics: {N}umerical Methods and Algorithmic Techniques},
 journal = {Parallel Computing},
 year =    2012,
 volume =  38,
 number =  {4--5},
 pages =   {245--259}
}

- fix qeq/reaxff command: doi:10.1016/j.parco.2011.08.005

@Article{Aktulga12,
 author = {H. M. Aktulga and J. C. Fogarty and S. A. Pandit and A. Y. Grama},
 title = {Parallel Reactive Molecular Dynamics: {N}umerical Methods and Algorithmic Techniques},
 journal = {Parallel Computing},
 year =    2012,
 volume =  38,
 pages =   {245--259}
}

CITE-CITE-CITE-CITE-CITE-CITE-CITE-CITE-CITE-CITE-CITE-CITE-CITE

Step          Temp          TotEng         PotEng         KinEng         Press
0   300           -413849.94     -417345.54      3495.5959      100232.72
Averages over the last 51 of 101 rows, steps 500 to 1000:
Temp TotEng PotEng KinEng Press
747.128 -420256 -428961 8705.53 -1548.42
Loop time of 197.672 on 1 procs for 1000 steps with 3910 atoms
